Michele is modifing the first line.

Cold and dry, but everything is my favorite color.

The two moons may be a problem.

New line.

Michele's modification to her own mars.txt file.

Julien's modifications to Michelle's file: Hello!!

Julien decided to modify the LAST line AT the SAME TIME
Julien decided to modify the LAST line AT the SAME TIME AGAIN!!!!!
Michele now added another last line, and modified this line..
Michele adding yet another line.
